7
acetate solutes.ff
C2         -2.65613        0.00235        0.04535
C1         -3.47235       -1.20251       -0.36529
HC         -3.70267       -1.81473        0.50922
HC         -2.93076       -1.82119       -1.08547
HC         -4.40678       -0.87866       -0.82826
O2         -3.07996        0.87471        0.77602
O2         -1.40355       -0.06932       -0.32115
